/*--------------------------------*- C++ -*----------------------------------*\
  =========                 |
  \\      /  F ield         | OpenFOAM: The Open Source CFD Toolbox
   \\    /   O peration     | Website:  https://openfoam.org
    \\  /    A nd           | Version:  12
     \\/     M anipulation  |
\*---------------------------------------------------------------------------*/
FoamFile
{
    format      ascii;
    class       dictionary;
    location    "system";
    object      controlDict;
}
// * * * * * * * * * * * * * * * * * * * * * * * * * * * * * * * * * * * * * //

application     incompressibleVoF;

// startFrom       startTime;
startFrom       latestTime;

startTime       0;

stopAt          endTime;

endTime         50;	// 2 or 30

deltaT          0.05;

writeControl    adjustableRunTime;

writeInterval   0.1;

purgeWrite      0;

writeFormat     binary;

writePrecision  8;

writeCompression uncompressed;

timeFormat      general;

timePrecision   6;

runTimeModifiable yes;

adjustTimeStep  on;

maxCo           0.5;
maxAlphaCo      0.5;

maxDeltaT       0.01;

// ************************************************************************* //

/*
functions
{

///////////////////////////////////////////////////////////////////////////

minmaxdomain_scalar
{
    type            volFieldValue;
    libs            ("libfieldFunctionObjects.so");

    enabled 	    true; 	//true or false
    log             true;	//write to screen
    
    //writeControl    writeTime;
    writeControl    timeStep;
    writeInterval   1;

    writeFields     false;	//write solution to field value - Not needed when only reporting value to screen

    writeLocation   true;	//write location in the output file

    //mode component;

    regionType      all;

    operation       none;

    fields
    (
        p_rgh p alpha.phase1
    );
}

minmaxdomain_vector
{
    type            volFieldValue;
    libs            ("libfieldFunctionObjects.so");

    enabled 	    true; 	//true or false
    log             true;	//write to screen
    
    //writeControl    writeTime;
    writeControl    timeStep;
    writeInterval   1;

    writeFields     false;	//write solution to field value - Not needed when only reporting value to screen

    writeLocation   true;	//write location in the output file

    //mode component;

    regionType      all;

    operation       none;

    fields
    (
        U
    );
}

mindomain_scalar
{
    $minmaxdomain_scalar
    operation       min;
}

mindomain_vector
{
    $minmaxdomain_vector
    operation       minMag;
}

maxdomain_scalar
{
    $minmaxdomain_scalar
    operation       max;
}

maxdomain_vector
{
    $minmaxdomain_vector
    operation       maxMag;
}

///////////////////////////////////////////////////////////////////////////

*/

};
