/*--------------------------------*- C++ -*----------------------------------*\
  =========                 |
  \\      /  F ield         | OpenFOAM: The Open Source CFD Toolbox
   \\    /   O peration     | Website:  https://openfoam.org
    \\  /    A nd           | Version:  12
     \\/     M anipulation  |
\*---------------------------------------------------------------------------*/
FoamFile
{
    format      ascii;
    class       dictionary;
    location    "system";
    object      fvSolution;
}
// * * * * * * * * * * * * * * * * * * * * * * * * * * * * * * * * * * * * * //

solvers
{

    "alpha.phase1.*"
    {
        nAlphaCorr 5;
        nAlphaSubCycles 1;
        cAlpha 1;

        MULESCorr yes;
        nLimiterIter 3;

        solver smoothSolver;
        smoother symGaussSeidel;
        tolerance 1e-8;
        relTol 0;
    }

    "pcorr.*"
    {
        solver          PCG;
        preconditioner  DIC;
        tolerance       1e-10;
        relTol          0;
    }

    p_rgh
    {
        solver          GAMG;
        tolerance       1e-7;
        relTol          0.01;
        smoother        GaussSeidel;
        cacheAgglomeration true;
        nCellsInCoarsestLevel 10;
        agglomerator    faceAreaPair;
        mergeLevels     1;
    }

    p_rghFinal
    {
        $p_rgh;
        relTol          0;
    }

    U
    {
        solver          smoothSolver;
        smoother        GaussSeidel;
        tolerance       1e-7;
        relTol          0.1;
        nSweeps         1;
    }

    UFinal
    {
        $U;
        relTol          0;
    }
}

PIMPLE
{
    //momentumPredictor no;
    nOuterCorrectors 1;
    nCorrectors 3;
    nNonOrthogonalCorrectors 1;

    pRefValue           0;
    pRefPoint           (0.1 0.1 1);
}

relaxationFactors
{
    fields
    {
        ".*" 0.9;
    }
    equations
    {
        ".*" 0.9;
    }
}

// ************************************************************************* //
